Circuit: * C:\Users\markx\Documents\GrabCAD\AERPAW_CAD\EDA\P2_PowerSystem\P2_PowerSystem\Draft1.asc

Fatal Error: Don't know how to detect this circuit's steady state.
