Circuit: * C:\Users\markx\Documents\GrabCAD\AERPAW\EDA\P2_PowerSystem\P2_PowerSystem\hallsigconditionerv2.asc

Instance "m:u2:6": Length shorter than recommended for a level 2 MOSFET.
Instance "m:u2:5": Length shorter than recommended for a level 2 MOSFET.
Direct Newton iteration failed to find .op point.  (Use ".option noopiter" to skip.)
Starting Gmin stepping
Gmin = 10
Gmin = 1.07374
Gmin = 0.115292
Gmin = 0.0123794
Gmin = 0.00132923
vernier = 0.5
vernier = 0.25
vernier = 0.125
vernier = 0.0625
Gmin = 0.00100083
vernier = 0.03125
vernier = 0.015625
vernier = 0.0078125
vernier = 0.00390625
vernier = 0.00195313
Gmin = 0.00100083
vernier = 0.000976563
vernier = 0.000488281
Gmin = 0
Gmin stepping failed

Starting source stepping with srcstepmethod=0
Source Step = 3.0303%
Source Step = 33.3333%
Source Step = 63.6364%
Source Step = 93.9394%
Source stepping succeeded in finding the operating point.


Date: Wed Oct 27 15:52:08 2021
Total elapsed time: 0.085 seconds.

tnom = 27
temp = 27
method = trap
totiter = 1754
traniter = 0
tranpoints = 0
accept = 0
rejected = 0
matrix size = 43
fillins = 17
solver = Normal
Matrix Compiler1:     164 opcodes
Matrix Compiler2: off  [0.4]/0.5/0.5

